Version 4
SHEET 1 1576 704
WIRE -2800 -352 -2880 -352
WIRE -2608 -352 -2720 -352
WIRE -2512 -352 -2608 -352
WIRE -688 -352 -704 -352
WIRE -592 -352 -608 -352
WIRE -3008 -304 -3008 -352
WIRE -2880 -304 -2880 -352
WIRE -2608 -304 -2608 -352
WIRE -816 -272 -848 -272
WIRE -704 -272 -704 -352
WIRE -704 -272 -736 -272
WIRE -688 -272 -704 -272
WIRE -1184 -256 -1264 -256
WIRE -976 -256 -976 -272
WIRE -848 -256 -848 -272
WIRE -592 -256 -592 -352
WIRE -592 -256 -624 -256
WIRE -576 -256 -592 -256
WIRE -1264 -240 -1264 -256
WIRE -688 -240 -704 -240
WIRE -3008 -224 -3008 -240
WIRE -3008 -192 -3008 -224
WIRE -2880 -192 -2880 -224
WIRE -2800 -192 -2880 -192
WIRE -2608 -192 -2608 -224
WIRE -2608 -192 -2720 -192
WIRE -976 -176 -976 -192
WIRE -1344 -128 -1440 -128
WIRE -2512 -112 -2512 -352
WIRE -2480 -112 -2512 -112
WIRE -2368 -112 -2400 -112
WIRE -2128 -112 -2128 -128
WIRE -2064 -112 -2128 -112
WIRE -1968 -112 -1984 -112
WIRE -1744 -96 -1888 -96
WIRE -736 -96 -784 -96
WIRE -3008 -80 -3008 -112
WIRE -2144 -80 -2320 -80
WIRE -1440 -80 -1440 -128
WIRE -1424 -80 -1440 -80
WIRE -784 -80 -784 -96
WIRE -736 -80 -736 -96
WIRE -688 -80 -736 -80
WIRE -1344 -64 -1344 -128
WIRE -1344 -64 -1360 -64
WIRE -1312 -64 -1344 -64
WIRE -1200 -64 -1200 -80
WIRE -1200 -64 -1232 -64
WIRE -1168 -64 -1200 -64
WIRE -1072 -64 -1088 -64
WIRE -528 -64 -624 -64
WIRE -1888 -48 -1888 -96
WIRE -1872 -48 -1888 -48
WIRE -1856 -48 -1872 -48
WIRE -1424 -48 -1488 -48
WIRE -976 -48 -976 -96
WIRE -720 -48 -784 -48
WIRE -688 -48 -720 -48
WIRE -2880 -32 -2880 -192
WIRE -2784 -32 -2880 -32
WIRE -2672 -32 -2720 -32
WIRE -2128 -32 -2128 -112
WIRE -2112 -32 -2128 -32
WIRE -1792 -32 -1808 -32
WIRE -1728 -32 -1744 -96
WIRE -2320 -16 -2320 -80
WIRE -2304 -16 -2320 -16
WIRE -1984 -16 -2048 -16
WIRE -1968 -16 -1968 -112
WIRE -1968 -16 -1984 -16
WIRE -1872 -16 -1968 -16
WIRE -784 -16 -784 -48
WIRE -3008 0 -3136 0
WIRE -2512 0 -2512 -112
WIRE -2480 0 -2512 0
WIRE -2224 0 -2240 0
WIRE -2144 0 -2144 -80
WIRE -2144 0 -2160 0
WIRE -2112 0 -2144 0
WIRE -1872 0 -1872 -16
WIRE -1744 0 -1728 -32
WIRE -1696 0 -1744 0
WIRE -1600 0 -1616 0
WIRE -1504 0 -1536 -16
WIRE -1504 0 -1600 0
WIRE -1488 0 -1488 -48
WIRE -1488 0 -1504 0
WIRE -1072 0 -1072 -64
WIRE -1040 0 -1072 0
WIRE -2368 16 -2368 -112
WIRE -2368 16 -2416 16
WIRE -2304 16 -2368 16
WIRE -2112 16 -2112 0
WIRE -1600 16 -1600 0
WIRE -1488 16 -1488 0
WIRE -3136 32 -3136 0
WIRE -2480 32 -2512 32
WIRE -2880 64 -2880 -32
WIRE -2784 64 -2880 64
WIRE -2512 64 -2512 32
WIRE -976 64 -976 48
WIRE -784 64 -816 64
WIRE -720 64 -720 -48
WIRE -656 64 -720 64
WIRE -528 64 -528 -64
WIRE -528 64 -576 64
WIRE -2672 80 -2672 -32
WIRE -2672 80 -2720 80
WIRE -2608 80 -2608 -192
WIRE -2784 96 -2880 96
WIRE -1984 96 -1984 64
WIRE -1600 112 -1600 80
WIRE -1568 112 -1600 112
WIRE -1488 112 -1488 96
WIRE -1488 112 -1568 112
WIRE -3136 128 -3136 112
WIRE -3008 128 -3008 112
WIRE -2880 128 -2880 96
WIRE -1568 128 -1568 112
FLAG -2880 128 0
FLAG -1856 -304 0
FLAG -1856 -384 v+
FLAG -1936 -304 0
FLAG -1936 -384 v-
FLAG -2752 48 v+
FLAG -2752 112 v-
FLAG -2448 -16 v+
FLAG -2448 48 v-
FLAG -2512 64 0
FLAG -2272 32 v-
FLAG -2272 -32 v+
FLAG -1568 128 0
FLAG -1264 -160 0
FLAG -1264 -336 v+
FLAG -1184 -256 bias
FLAG -1392 -32 v-
FLAG -1392 -96 v+
FLAG -1200 -80 bias
FLAG -976 -272 v+
FLAG -976 64 0
FLAG -1536 -16 atkrel
FLAG -656 -32 v+
FLAG -656 -96 v-
FLAG -3008 -352 in
IOPIN -3008 -352 In
FLAG -528 -64 out
IOPIN -528 -64 Out
FLAG -816 64 in
IOPIN -816 64 In
FLAG -784 -80 0
FLAG -3008 128 0
FLAG -656 -288 v+
FLAG -656 -224 v-
FLAG -2880 -352 comp
IOPIN -2880 -352 In
FLAG -704 -240 in
IOPIN -704 -240 In
FLAG -576 -256 comp
IOPIN -576 -256 In
FLAG -848 -256 0
FLAG -2080 16 v-
FLAG -2080 -48 v+
FLAG -2016 -304 0
FLAG -2016 -384 vth
FLAG -2128 -208 vth
FLAG -1984 160 0
FLAG -1840 0 v-
FLAG -1840 -64 v+
FLAG -3136 128 0
SYMBOL diode -2608 64 R90
WINDOW 0 0 32 VBottom 2
WINDOW 3 31 -24 VTop 2
SYMATTR InstName D1
SYMATTR Value 1N4148
SYMBOL diode -2720 -48 R90
WINDOW 0 0 32 VBottom 2
WINDOW 3 32 32 VTop 2
SYMATTR InstName D2
SYMATTR Value 1N4148
SYMBOL Opamps\\OPA2134 -2752 16 R0
SYMATTR InstName U2
SYMBOL res -2704 -368 R90
WINDOW 0 0 56 VBottom 2
WINDOW 3 32 56 VTop 2
SYMATTR InstName R2
SYMATTR Value 20k
SYMBOL res -2896 -320 R0
SYMATTR InstName R1
SYMATTR Value 20k
SYMBOL res -2624 -320 R0
SYMATTR InstName R4
SYMATTR Value 10k
SYMBOL res -2704 -208 R90
WINDOW 0 0 56 VBottom 2
WINDOW 3 32 56 VTop 2
SYMATTR InstName R6
SYMATTR Value 20k
SYMBOL voltage -1856 -400 R0
WINDOW 123 0 0 Left 2
WINDOW 39 0 0 Left 2
SYMATTR InstName V2
SYMATTR Value 15
SYMBOL voltage -1936 -400 R0
WINDOW 123 0 0 Left 2
WINDOW 39 0 0 Left 2
SYMATTR InstName V3
SYMATTR Value -15
SYMBOL Opamps\\OPA2134 -2448 -48 R0
SYMATTR InstName U1
SYMBOL res -2384 -128 R90
WINDOW 0 0 56 VBottom 2
WINDOW 3 32 56 VTop 2
SYMATTR InstName R3
SYMATTR Value 20k
SYMBOL res -1600 -16 R90
WINDOW 0 0 56 VBottom 2
WINDOW 3 32 56 VTop 2
SYMATTR InstName R5
SYMATTR Value {Ratk1}
SYMBOL res -1472 112 R180
WINDOW 0 -42 80 Left 2
WINDOW 3 -89 39 Left 2
SYMATTR InstName R7
SYMATTR Value {Rrel1}
SYMBOL Misc\\EuropeanCap -1616 16 R0
SYMATTR InstName C1
SYMATTR Value 1µF
SYMATTR SpiceLine Rser=20m
SYMBOL Opamps\\OPA2134 -2272 -64 R0
WINDOW 3 -35 126 Left 2
SYMATTR InstName U3
SYMBOL diode -2224 16 R270
WINDOW 0 32 32 VTop 2
WINDOW 3 0 32 VBottom 2
SYMATTR InstName D3
SYMATTR Value 1N4148
SYMBOL voltage -3008 -208 R0
WINDOW 123 0 0 Left 2
WINDOW 39 0 0 Left 2
WINDOW 3 -154 -57 Left 2
SYMATTR Value SINE(0 2 75 20m 6)
SYMATTR InstName V4
SYMBOL voltage -3008 -96 R0
WINDOW 123 0 0 Left 2
WINDOW 39 0 0 Left 2
WINDOW 3 -172 57 Left 2
SYMATTR Value SINE(0 6 300 200m 30)
SYMATTR InstName V5
SYMBOL voltage -3008 -320 R0
WINDOW 123 0 0 Left 2
WINDOW 39 0 0 Left 2
WINDOW 3 -160 166 Left 2
SYMATTR Value SINE(0 2 150 20m 5 0)
SYMATTR InstName V6
SYMBOL res -1280 -352 R0
SYMATTR InstName R10
SYMATTR Value 100k
SYMBOL res -1280 -256 R0
SYMATTR InstName R11
SYMATTR Value 7.8k
SYMBOL Opamps\\OPA2134 -1392 -128 R0
WINDOW 3 -35 126 Left 2
SYMATTR InstName U4
SYMBOL LED -992 -256 R0
SYMATTR InstName D6
SYMATTR Value NSCW100
SYMATTR Description Diode
SYMATTR Type diode
SYMBOL res -992 -192 R0
SYMATTR InstName Rc
SYMATTR Value 4.7k
SYMBOL npn -1040 -48 R0
SYMATTR InstName Q1
SYMATTR Value 2N2222
SYMBOL res -1184 -48 R270
WINDOW 0 32 56 VTop 2
WINDOW 3 0 56 VBottom 2
SYMATTR InstName R8
SYMATTR Value 300k
SYMBOL res -1216 -80 R90
WINDOW 0 0 56 VBottom 2
WINDOW 3 32 56 VTop 2
SYMATTR InstName R9
SYMATTR Value 10k
SYMBOL res -560 48 R90
WINDOW 0 0 56 VBottom 2
WINDOW 3 32 56 VTop 2
SYMATTR InstName Rc1
SYMATTR Value R=18000*exp(-2360* I(Rc))
SYMBOL Opamps\\OPA2134 -656 0 M180
SYMATTR InstName U5
SYMBOL res -800 -32 R0
SYMATTR InstName R14
SYMATTR Value 8k
SYMBOL voltage -3008 16 R0
WINDOW 3 -121 57 Left 2
WINDOW 123 0 0 Left 2
WINDOW 39 0 0 Left 2
SYMATTR Value ""
SYMATTR InstName V1
SYMBOL Opamps\\OPA2134 -656 -320 R0
SYMATTR InstName U6
SYMBOL res -704 -336 R270
WINDOW 0 32 56 VTop 2
WINDOW 3 0 56 VBottom 2
SYMATTR InstName R16
SYMATTR Value 1k
SYMBOL res -832 -256 R270
WINDOW 0 32 56 VTop 2
WINDOW 3 0 56 VBottom 2
SYMATTR InstName R17
SYMATTR Value 10k
SYMBOL Opamps\\OPA2134 -2080 -80 R0
WINDOW 3 -35 126 Left 2
SYMATTR InstName U7
SYMBOL res -2080 -96 R270
WINDOW 0 32 56 VTop 2
WINDOW 3 0 56 VBottom 2
SYMATTR InstName R12
SYMATTR Value 100
SYMBOL res -2144 -224 R0
SYMATTR InstName R13
SYMATTR Value 10k
SYMBOL voltage -2016 -400 R0
WINDOW 123 0 0 Left 2
WINDOW 39 0 0 Left 2
SYMATTR InstName V7
SYMATTR Value 15
SYMBOL diode -1968 160 R180
WINDOW 0 41 62 Left 2
WINDOW 3 24 0 Left 2
SYMATTR InstName D4
SYMATTR Value 1N4148
SYMBOL res -2000 -32 R0
SYMATTR InstName R15
SYMATTR Value 1k
SYMBOL Opamps\\OPA2134 -1840 -96 R0
WINDOW 3 -35 126 Left 2
SYMATTR InstName U8
SYMBOL cap -1728 -48 R90
WINDOW 0 0 32 VBottom 2
WINDOW 3 32 32 VTop 2
SYMATTR InstName C2
SYMATTR Value 470n
SYMBOL voltage -3136 16 R0
WINDOW 123 0 0 Left 2
WINDOW 39 0 0 Left 2
WINDOW 3 -172 57 Left 2
SYMATTR Value PWL(0 6 300 200m 30)
SYMATTR InstName V8
TEXT -1800 -400 Left 2 !.param Rrel1 =  100k
TEXT -1792 -432 Left 2 !.param Ratk1 =  2k
TEXT -1584 -400 Left 2 ;.step param Ratk1 list 2k 6k
TEXT -1984 -440 Left 2 !.tran 0 .4 0
